/*---------------------------------------------------------------------------*\
| =========                 |                                                 |
| \\      /  F ield         | OpenFOAM: The Open Source CFD Toolbox           |
|  \\    /   O peration     | Version:  2312                                  |
|   \\  /    A nd           | Website:  www.openfoam.com                      |
|    \\/     M anipulation  |                                                 |
\*---------------------------------------------------------------------------*/
Build  : c39a0f6494-20231220 OPENFOAM=2312 version=v2312
Arch   : "LSB;label=32;scalar=64"
Exec   : C:\Users\floodmodeller\AppData\Roaming\ESI-OpenCFD\OpenFOAM\v2312\msys64\home\ofuser\OpenFOAM\OpenFOAM-v2312\platforms\win64MingwDPInt32Opt\bin\checkMesh.exe
Date   : Aug 16 2024
Time   : 16:46:53
Host   : GLAENG68
PID    : 25636
I/O    : uncollated
Case   : F:/f68_shared/gruggies_v11
nProcs : 1
trapFpe: Floating point exception trapping enabled (FOAM_SIGFPE).
fileModificationChecking : Monitoring run-time modified files using timeStampMaster (fileModificationSkew 5, maxFileModificationPolls 20)
allowSystemOperations : Allowing user-supplied system call operations

// * * * * * * * * * * * * * * * * * * * * * * * * * * * * * * * * * * * * * //
Create time

Create mesh for time = 0

Check mesh...

Time = 0

Mesh stats 
    points:           12355121
    faces:            34991529
    internal faces:   33941780
    cells:            11337929
    faces per cell:   6.07988540059
    boundary patches: 5
    point zones:      1
    face zones:       0
    cell zones:       1

Overall number of cells of each type:
    hexahedra:     10630350
    prisms:        105164
    wedges:        1
    pyramids:      0
    tet wedges:    1675
    tetrahedra:    3
    polyhedra:     600736
    Breakdown of polyhedra by number of faces:
        faces   number of cells
            4   39764
            5   28139
            6   46348
            7   227649
            8   48910
            9   166176
           10   1545
           11   206
           12   30090
           13   4
           15   10904
           17   1
           18   1000

Checking topology...
    Boundary definition OK.
    Cell to face addressing OK.
    Point usage OK.
    Upper triangular ordering OK.
    Face vertices OK.
    Number of regions: 1 (OK).

Checking patch topology for multiply connected surfaces...
                   Patch    Faces   Points  Surface topology
              atmosphere   159100   161225  ok (non-closed singly connected)
               structure   869531   909282  ok (non-closed singly connected)
          culvert_outlet     1747     1894  ok (non-closed singly connected)
           bridge_outlet     3235     3625  ok (non-closed singly connected)
                   inlet    16136    16575  ok (non-closed singly connected)
                    ".*"  1049749  1088351      ok (closed singly connected)


Checking faceZone topology for multiply connected surfaces...
    No faceZones found.

Checking basic cellZone addressing...
                CellZone        Cells       Points       VolumeBoundingBox
                  fluid     11337929     12355121 4437.97327818 (36.2232480265 74.2567979999 30.5616270625) (97.187927 133.927126144 37.1118613134)

Checking basic pointZone addressing...
               PointZone  PointsBoundingBox
            frozenPoints       0(1e+150 1e+150 1e+150) (-1e+150 -1e+150 -1e+150)

Checking geometry...
    Overall domain bounding box (36.2232480265 74.2567979999 30.5616270625) (97.187927 133.927126144 37.1118613134)
    Mesh has 3 geometric (non-empty/wedge) directions (1 1 1)
    Mesh has 3 solution (non-empty) directions (1 1 1)
    Boundary openness (5.88033385651e-16 3.55920691507e-16 -4.37515033519e-15) OK.
 ***High aspect ratio cells found, Max aspect ratio: 2042.92422475, number of cells 1
  <<Writing 1 cells with high aspect ratio to set highAspectRatioCells
    Minimum face area = 8.23917461514e-13. Maximum face area = 0.0158661464995.  Face area magnitudes OK.
    Min volume = 4.49283805119e-10. Max volume = 0.00120920729843.  Total volume = 4437.97327818.  Cell volumes OK.
    Mesh non-orthogonality Max: 74.9903994328 average: 6.18398168288
   *Number of severely non-orthogonal (> 70 degrees) faces: 536.
    Non-orthogonality check OK.
  <<Writing 536 non-orthogonal faces to set nonOrthoFaces
    Face pyramids OK.
 ***Max skewness = 7.82405269537, 101 highly skew faces detected which may impair the quality of the results
  <<Writing 101 skew faces to set skewFaces
    Coupled point location match (average 0) OK.

Failed 2 mesh checks.

End

